3hz1_ligand
 OpenBabel01252318193D

 26 29  0  0  1  0  0  0  0  0999 V2000
    0.5140   10.0710   25.7200 C   0  0  0  0  0  0  0  0  0  0  0  0
    0.2640    9.6440   26.9730 N   0  0  0  0  0  0  0  0  0  0  0  0
   -0.9270    9.8490   27.5700 C   0  0  0  0  0  3  0  0  0  0  0  0
   -1.9240   10.4670   26.9250 N   0  0  0  0  0  0  0  0  0  0  0  0
   -1.7320   10.9040   25.6500 C   0  0  0  0  0  0  0  0  0  0  0  0
   -0.5080   10.7150   25.0250 C   0  0  0  0  0  0  0  0  0  0  0  0
   -0.5980   11.2610   23.7870 N   0  0  0  0  0  2  0  0  0  0  0  0
   -1.8540   11.7590   23.6440 C   0  0  0  0  0  3  0  0  0  0  0  0
   -2.5410   11.5350   24.7810 N   0  0  0  0  0  0  0  0  0  0  0  0
    1.7750    9.8190   25.1580 N   0  0  0  0  0  0  0  0  0  0  0  0
    2.8080    9.1390   25.9590 C   0  0  0  0  0  1  0  0  0  0  0  0
    2.1010   10.1650   23.7740 C   0  0  0  0  0  2  0  0  0  0  0  0
    2.5520   11.6470   23.7450 C   0  0  0  0  0  2  0  0  0  0  0  0
    3.8320   11.9170   24.5600 C   0  0  0  0  0  2  0  0  0  0  0  0
    4.4510   13.2520   24.1120 C   0  0  0  0  0  2  0  0  0  0  0  0
    5.8170   13.4740   24.7130 C   0  0  0  0  0  0  0  0  0  0  0  0
    7.0960   12.7650   24.5180 C   0  0  0  0  0  0  0  0  0  0  0  0
    8.0960   13.2440   25.2380 N   0  0  0  0  0  0  0  0  0  0  0  0
    7.5270   14.2890   25.9780 N   0  0  0  0  0  0  0  0  0  0  0  0
    6.2130   14.4640   25.7170 C   0  0  1  0  0  3  0  0  0  0  0  0
    5.3250   15.5150   26.3370 C   0  0  0  0  0  1  0  0  0  0  0  0
    7.3000   11.6340   23.5870 C   0  0  0  0  0  0  0  0  0  0  0  0
    6.4770   11.3940   22.5420 O   0  0  0  0  0  0  0  0  0  0  0  0
    7.0990   10.2100   21.9230 C   0  0  0  0  0  3  0  0  0  0  0  0
    8.2370    9.8900   22.6480 C   0  0  0  0  0  3  0  0  0  0  0  0
    8.3850   10.7840   23.7010 C   0  0  0  0  0  3  0  0  0  0  0  0
  1  2  1  0  0  0  0
  2  3  2  0  0  0  0
  4  3  1  0  0  0  0
  5  4  2  0  0  0  0
  6  5  1  0  0  0  0
  6  1  2  0  0  0  0
  7  6  1  0  0  0  0
  8  7  1  0  0  0  0
  8  9  2  0  0  0  0
  9  5  1  0  0  0  0
 10  1  1  0  0  0  0
 10 11  1  0  0  0  0
 12 10  1  0  0  0  0
 13 12  1  0  0  0  0
 13 14  1  0  0  0  0
 15 14  1  0  0  0  0
 15 16  1  0  0  0  0
 16 20  1  0  0  0  0
 17 16  2  0  0  0  0
 17 18  1  0  0  0  0
 18 19  2  0  0  0  0
 20 19  1  0  0  0  0
 20 21  1  6  0  0  0
 22 26  2  0  0  0  0
 22 17  1  0  0  0  0
 23 22  1  0  0  0  0
 24 23  1  0  0  0  0
 24 25  2  0  0  0  0
 25 26  1  0  0  0  0
M  END
$$$$
